# ****
# Created by GaussView 6.0.16
#

#
#

@<TRIPOS>MOLECULE
Molecule Name
373 381
SMALL
NO_CHARGES


@<TRIPOS>ATOM
1 C1    -0.7936    -2.4526     0.3255 C
2 C2     0.0354    -1.6146     1.2841 C
3 O3     3.9258    -4.3677    -1.8564 O
4 O4     1.4700    -3.4484     1.7364 O
5 C5     5.0461    -2.2749     1.0284 C
6 O6     0.7730    -4.2436    -1.3948 O
7 C7     5.6398    -0.3519    -5.4800 C
8 C8     0.4858     0.5951     2.2485 C
9 C9     1.6874     0.0966     2.7645 C
10 C10     2.0821    -1.2439     2.5637 C
11 C11     4.5327    -1.3134     1.9171 C
12 C12     4.9236     0.0300     1.7591 C
13 C13     5.7663     0.4336     0.7178 C
14 C14     6.2184    -0.5407    -0.1831 C
15 C15     5.8505    -1.8952    -0.0606 C
16 C16    -0.5694    -0.6590    -3.0504 C
17 C17    -0.9636    -1.0327    -1.7577 C
18 C18    -0.4485    -2.1818    -1.1310 C
19 C19     6.0597     1.8899     0.4382 C
20 C20     0.0842     2.0498     2.3206 C
21 C21    -1.2239     0.5067    -3.7433 C
22 C22     0.4022    -1.4260    -3.7056 C
23 C23     1.2049    -2.1106     1.8844 C
24 C24     3.8437    -1.9224    -4.6207 C
25 O25     4.6972    -3.5926     1.1821 O
26 C26     0.4220    -3.0015    -1.8679 C
27 C27     0.9109    -2.6011    -3.1268 C
28 C28     1.9520    -3.4109    -3.8745 C
29 C29     3.3759    -2.9012    -3.7209 C
30 C30     3.4910    -1.6511     2.9713 C
31 C31    -0.3208    -0.2720     1.4996 C
32 C32     5.1147    -1.3489    -4.4804 C
33 C33     6.2420    -2.8709    -1.1613 C
34 C34     4.2339    -3.3185    -2.6835 C
35 C35     5.8924    -1.7006    -3.3712 C
36 C36     5.4483    -2.6527    -2.4406 C
37 N37     6.2003     2.7299     1.6184 N
38 N38     0.6616     2.8257     3.4066 N
39 N39     5.3927     1.0355    -5.1219 N
40 N40    -0.9065     1.8146    -3.1913 N
41 C41     5.6558    -4.2799     1.9979 C
42 C42     5.3284    -5.7720     1.9663 C
43 C43     6.2667    -6.5728     2.8684 C
44 C44     5.9600    -8.0718     2.8192 C
45 C45     6.8861    -8.8568     3.7521 C
46 C46     6.6082   -10.3607     3.6917 C
47 C47     7.5292   -11.1336     4.6392 C
48 C48     7.2748   -12.6408     4.5663 C
49 C49     8.1945   -13.4066     5.5201 C
50 C50     7.9587   -14.9158     5.4342 C
51 C51     8.8790   -15.6778     6.3881 C
52 C52     8.6566   -17.1793     6.2980 C
53 C53     1.4311    -4.1553     2.9826 C
54 C54     0.2891    -5.1722     2.9997 C
55 C55     0.2884    -5.9311     4.3282 C
56 C56    -0.8590    -6.9358     4.4495 C
57 C57    -0.8224    -7.6118     5.8240 C
58 C58    -1.9612    -8.6140     6.0191 C
59 C59    -1.9009    -9.2288     7.4207 C
60 C60    -3.0273   -10.2362     7.6572 C
61 C61    -2.9553   -10.8141     9.0731 C
62 C62    -4.0716   -11.8279     9.3277 C
63 C63    -3.9942   -12.3909    10.7475 C
64 C64    -5.0984   -13.4026    11.0093 C
65 C65     3.9781    -5.6316    -2.5290 C
66 C66     5.3770    -6.2526    -2.5657 C
67 C67     5.3444    -7.4954    -3.4567 C
68 C68     6.6921    -8.2066    -3.5732 C
69 C69     6.6041    -9.2869    -4.6547 C
70 C70     7.8720   -10.1328    -4.7607 C
71 C71     7.7507   -11.1114    -5.9317 C
72 C72     8.9277   -12.0836    -6.0043 C
73 C73     8.7806   -13.0163    -7.2096 C
74 C74     9.8853   -14.0718    -7.2497 C
75 C75     9.7321   -14.9829    -8.4681 C
76 C76    10.7969   -16.0675    -8.4915 C
77 C77    -0.2879    -5.1800    -1.6504 C
78 C78     0.3039    -6.5639    -1.9054 C
79 C79    -0.7932    -7.5718    -2.2454 C
80 C80    -0.2208    -8.9459    -2.5971 C
81 C81    -1.3347    -9.9032    -3.0269 C
82 C82    -0.7899   -11.2823    -3.4022 C
83 C83    -1.9148   -12.2005    -3.8852 C
84 C84    -1.3933   -13.5905    -4.2529 C
85 C85    -2.5226   -14.4815    -4.7772 C
86 C86    -2.0134   -15.8818    -5.1251 C
87 C87    -3.0738   -16.7647    -5.7873 C
88 C88    -4.2575   -17.0760    -4.8846 C
89 O89     6.9247    10.9096     5.3010 O
90 P90     8.1423    10.5535     4.4557 P
91 O91     8.8867    10.2499     3.1597 O
92 O92     8.1052     9.1681     4.8573 O
93 O93     9.1603    11.2866     5.1592 O
94 C94     9.3149    12.6702     4.8563 C
95 C95    10.5410    13.1638     5.6415 C
96 N96    10.8140    14.6793     5.5466 N
97 C97    12.1036    14.9629     6.3307 C
98 C98     9.6891    15.4829     6.1809 C
99 C99    11.0282    15.1192     4.1070 C
100 C100     7.1439     8.3108     4.2345 C
101 C101     7.8103     6.9700     3.9227 C
102 N102     7.2769     5.8961     4.5985 N
103 C103     7.7381     4.5455     4.3566 C
104 O104     8.7562     6.8794     3.1424 O
105 N105     5.1637     3.4633     2.0769 N
106 N106     5.5980     4.1623     3.1173 N
107 C107     6.9365     3.8927     3.2881 C
108 C108     7.3306     2.9706     2.3424 C
109 N109     0.0785     2.8502     4.6203 N
110 N110     0.7360     3.7293     5.3617 N
111 C111     1.7309     4.2866     4.5917 C
112 C112     1.6995     3.7124     3.3410 C
113 C113     4.6090     1.9405    -5.7834 C
114 C114     4.8817     3.1404    -5.1622 C
115 N115     5.7834     2.9220    -4.1478 N
116 N116     6.1042     1.6365    -4.1461 N
117 C117    -0.1653     2.8048    -3.7772 C
118 C118    -0.4540     3.9284    -3.0302 C
119 N119    -1.3051     3.5806    -2.0134 N
120 N120    -1.5837     2.2902    -2.1270 N
121 O121    -0.9473     9.6276     8.5389 O
122 P122    -0.0243    10.4064     7.6171 P
123 O123    -0.7569    10.8034     6.3489 O
124 O124     1.1240     9.6401     7.2566 O
125 O125     0.4375    11.5694     8.3155 O
126 C126    -0.5453    12.5626     8.6071 C
127 C127     0.0391    13.4878     9.6873 C
128 N128    -0.7920    14.7516     9.9919 N
129 C129    -0.1315    15.4676    11.1774 C
130 C130    -2.2220    14.4061    10.3878 C
131 C131    -0.7985    15.7049     8.8052 C
132 C132     0.8563     8.2998     6.8667 C
133 C133     1.9772     7.6072     6.0684 C
134 N134     1.7527     6.2576     5.9243 N
135 C135     2.5880     5.3698     5.1381 C
136 O136     2.9454     8.1873     5.5862 O
137 O137     4.9273    10.4028    -7.1962 O
138 P138     6.1181     9.4740    -7.1563 P
139 O139     6.3518     8.3838    -8.1677 O
140 O140     6.4055     8.9815    -5.6395 O
141 O141     7.4149    10.4689    -7.2725 O
142 C142     7.4586    11.3137    -8.4135 C
143 C143     6.9267    12.7059    -8.0389 C
144 N144     7.1480    13.7969    -9.1042 N
145 C145     8.6334    14.0555    -9.3411 C
146 C146     6.4728    13.4326   -10.4218 C
147 C147     6.5180    15.0933    -8.5841 C
148 C148     6.6268     7.6014    -5.4488 C
149 C149     5.3809     6.7629    -5.7309 C
150 N150     5.5138     5.4407    -5.3930 N
151 C151     4.4023     4.5137    -5.4621 C
152 O152     4.3626     7.2506    -6.2122 O
153 O153    -4.9450     8.8193    -5.9117 O
154 P154    -3.6494     9.7593    -5.9702 P
155 O155    -3.1434    10.0093    -7.3542 O
156 O156    -2.6429     9.0481    -4.9527 O
157 O157    -4.1592    11.2581    -5.1425 O
158 C158    -4.9080    12.2289    -6.0452 C
159 C159    -3.9343    13.0515    -6.8929 C
160 N160    -4.6159    13.8241    -8.0363 N
161 C161    -3.5401    14.6400    -8.7613 C
162 C162    -5.2307    12.8639    -9.0578 C
163 C163    -5.6806    14.7841    -7.5249 C
164 C164    -2.1276     7.7871    -5.3388 C
165 C165    -1.0178     7.3143    -4.3963 C
166 N166    -1.0005     5.9522    -4.1885 N
167 C167    -0.0773     5.3481    -3.2444 C
168 O168    -0.2096     8.0813    -3.8795 O
169 H169    -0.6096    -3.5287     0.5416 H
170 H170    -1.8627    -2.1820     0.4764 H
171 H171     5.1525    -0.5513    -6.4606 H
172 H172     6.7446    -0.4826    -5.5134 H
173 H173     2.3414     0.7668     3.3417 H
174 H174     4.5567     0.7820     2.4731 H
175 H175     6.8794    -0.2392    -1.0091 H
176 H176    -1.6946    -0.4111    -1.2198 H
177 H177     7.0100     1.9450    -0.1387 H
178 H178     5.1790     2.2820    -0.1179 H
179 H179    -1.0229     2.0904     2.4269 H
180 H180     0.4746     2.5116     1.3862 H
181 H181    -0.9039     0.4966    -4.8093 H
182 H182    -2.3201     0.3715    -3.6057 H
183 H183     0.7732    -1.1031    -4.6895 H
184 H184     3.1974    -1.6018    -5.4510 H
185 H185     1.9150    -4.4572    -3.4970 H
186 H186     1.7008    -3.3289    -4.9557 H
187 H187     3.5061    -2.7503     3.1455 H
188 H188     3.7503    -1.0817     3.8918 H
189 H189    -1.2586     0.1084     1.0685 H
190 H190     6.0593    -3.9079    -0.8005 H
191 H191     7.3169    -2.7032    -1.3964 H
192 H192     6.8716    -1.2210    -3.2259 H
193 H193     5.5978    -3.9041     3.0439 H
194 H194     6.6849    -4.1041     1.6123 H
195 H195     5.4298    -6.1416     0.9213 H
196 H196     4.2879    -5.9084     2.3372 H
197 H197     7.3153    -6.4087     2.5332 H
198 H198     6.1219    -6.2239     3.9154 H
199 H199     6.1006    -8.4367     1.7772 H
200 H200     4.9094    -8.2280     3.1517 H
201 H201     7.9415    -8.6731     3.4502 H
202 H202     6.7027    -8.5116     4.7942 H
203 H203     6.7758   -10.7187     2.6512 H
204 H204     5.5544   -10.5367     4.0036 H
205 H205     8.5871   -10.9321     4.3582 H
206 H206     7.3224   -10.7952     5.6791 H
207 H207     7.4607   -12.9896     3.5258 H
208 H208     6.2200   -12.8340     4.8643 H
209 H209     9.2531   -13.1904     5.2527 H
210 H210     7.9730   -13.0767     6.5597 H
211 H211     8.1566   -15.2544     4.3926 H
212 H212     6.9041   -15.1234     5.7230 H
213 H213     9.9370   -15.4531     6.1257 H
214 H214     8.6499   -15.3530     7.4277 H
215 H215     7.8628   -17.3930     5.5476 H
216 H216     9.6031   -17.6760     5.9877 H
217 H217     8.3413   -17.5679     7.2922 H
218 H218     2.3964    -4.6900     3.1277 H
219 H219     1.2648    -3.4210     3.8023 H
220 H220     0.4251    -5.8934     2.1630 H
221 H221    -0.6799    -4.6375     2.8821 H
222 H222     1.2512    -6.4818     4.4207 H
223 H223     0.1559    -5.1792     5.1381 H
224 H224    -0.7559    -7.7095     3.6561 H
225 H225    -1.8273    -6.3997     4.3323 H
226 H226     0.1465    -8.1492     5.9304 H
227 H227    -0.9388    -6.8161     6.5935 H
228 H228    -1.8703    -9.4233     5.2604 H
229 H229    -2.9322    -8.0832     5.9003 H
230 H230    -0.9242    -9.7483     7.5424 H
231 H231    -2.0167    -8.4057     8.1609 H
232 H232    -2.9345   -11.0654     6.9205 H
233 H233    -4.0027    -9.7143     7.5352 H
234 H234    -1.9725   -11.3191     9.2066 H
235 H235    -3.0754    -9.9766     9.7963 H
236 H236    -3.9745   -12.6645     8.6001 H
237 H237    -5.0505   -11.3126     9.2056 H
238 H238    -3.0084   -12.8890    10.8849 H
239 H239    -4.1173   -11.5478    11.4636 H
240 H240    -5.7270   -13.5109    10.0972 H
241 H241    -4.6460   -14.3865    11.2664 H
242 H242    -5.7302   -13.0513    11.8556 H
243 H243     3.2948    -6.3366    -2.0047 H
244 H244     3.6748    -5.4510    -3.5846 H
245 H245     5.6848    -6.5401    -1.5354 H
246 H246     6.1060    -5.5163    -2.9720 H
247 H247     5.0214    -7.1872    -4.4763 H
248 H248     4.6381    -8.2144    -2.9846 H
249 H249     7.4785    -7.4687    -3.8488 H
250 H250     6.9507    -8.6763    -2.5979 H
251 H251     5.7495    -9.9585    -4.4154 H
252 H252     6.4673    -8.7696    -5.6307 H
253 H253     8.0136   -10.7043    -3.8162 H
254 H254     8.7450    -9.4639    -4.9316 H
255 H255     6.8114   -11.6964    -5.8120 H
256 H256     7.7444   -10.5158    -6.8720 H
257 H257     8.9575   -12.6919    -5.0727 H
258 H258     9.8695   -11.5007    -6.1135 H
259 H259     7.7948   -13.5295    -7.1491 H
260 H260     8.8565   -12.4012    -8.1340 H
261 H261     9.8311   -14.6894    -6.3254 H
262 H262    10.8677   -13.5531    -7.3173 H
263 H263     8.7284   -15.4629    -8.4361 H
264 H264     9.8465   -14.3619    -9.3846 H
265 H265    11.4603   -15.9561    -7.6049 H
266 H266    10.3081   -17.0671    -8.4653 H
267 H267    11.4015   -15.9736    -9.4212 H
268 H268    -0.9643    -5.2234    -0.7676 H
269 H269    -0.8638    -4.8527    -2.5447 H
270 H270     1.0187    -6.5030    -2.7563 H
271 H271     0.8253    -6.9034    -0.9825 H
272 H272    -1.3728    -7.1911    -3.1159 H
273 H273    -1.4420    -7.6890    -1.3488 H
274 H274     0.5072    -8.8351    -3.4317 H
275 H275     0.2828    -9.3644    -1.6971 H
276 H276    -1.8587    -9.4717    -3.9089 H
277 H277    -2.0308   -10.0298    -2.1676 H
278 H278    -0.0387   -11.1679    -4.2155 H
279 H279    -0.3214   -11.7372    -2.5009 H
280 H280    -2.3908   -11.7455    -4.7826 H
281 H281    -2.6495   -12.3138    -3.0569 H
282 H282    -0.6145   -13.4893    -5.0415 H
283 H283    -0.9663   -14.0613    -3.3392 H
284 H284    -2.9553   -14.0166    -5.6912 H
285 H285    -3.2927   -14.5769    -3.9794 H
286 H286    -1.1523   -15.7809    -5.8230 H
287 H287    -1.7242   -16.3742    -4.1697 H
288 H288    -3.4513   -16.2405    -6.6937 H
289 H289    -2.5852   -17.7345    -6.0311 H
290 H290    -4.1102   -16.5855    -3.8965 H
291 H291    -5.1915   -16.6927    -5.3530 H
292 H292    -4.3369   -18.1772    -4.7438 H
293 H293     7.0086    10.9945     6.2354 H
294 H294     6.8635    11.1873     4.2643 H
295 H295     8.4077    13.2340     5.1694 H
296 H296     9.4519    12.8263     3.7629 H
297 H297    11.4363    12.6279     5.2541 H
298 H298    10.3269    12.9544     6.7134 H
299 H299    12.4967    14.0123     6.7556 H
300 H300    12.8628    15.4053     5.6475 H
301 H301    11.8860    15.6764     7.1567 H
302 H302     8.9134    14.7889     6.5752 H
303 H303     9.2341    16.1510     5.4159 H
304 H304    10.0966    16.0964     7.0154 H
305 H305    10.9394    14.2385     3.4323 H
306 H306    10.2592    15.8754     3.8324 H
307 H307    12.0425    15.5654     4.0027 H
308 H308     6.2845     8.1501     4.9232 H
309 H309     6.7729     8.7773     3.2945 H
310 H310     6.5456     6.0544     5.2799 H
311 H311     8.8056     4.5765     4.0429 H
312 H312     7.6242     3.9581     5.2950 H
313 H313     8.3287     2.5297     2.2034 H
314 H314     2.3586     3.9197     2.4851 H
315 H315     3.9191     1.7537    -6.6195 H
316 H316     0.5065     2.7236    -4.6445 H
317 H317    -0.6294     9.3137     9.3683 H
318 H318    -1.2380    11.1210     7.3171 H
319 H319    -0.7764    13.1488     7.6897 H
320 H320    -1.4874    12.0893     8.9639 H
321 H321     0.1308    12.9016    10.6290 H
322 H322     1.0142    13.8483     9.2898 H
323 H323     0.7649    14.8949    11.5047 H
324 H324    -0.8559    15.5352    12.0197 H
325 H325     0.1755    16.4917    10.8678 H
326 H326    -2.3557    13.3013    10.3703 H
327 H327    -2.9294    14.8763     9.6686 H
328 H328    -2.4255    14.7880    11.4132 H
329 H329    -0.1958    15.2706     7.9765 H
330 H330    -1.8453    15.8599     8.4603 H
331 H331    -0.3595    16.6808     9.1112 H
332 H332     0.6739     7.7042     7.7891 H
333 H333    -0.0214     8.3484     6.1840 H
334 H334     0.9524     5.8582     6.3978 H
335 H335     3.0566     5.9362     4.3025 H
336 H336     3.3939     4.9384     5.7731 H
337 H337     8.5094    11.4017    -8.7697 H
338 H338     6.8281    10.8800    -9.2216 H
339 H339     5.8321    12.6191    -7.8566 H
340 H340     7.5011    13.0269    -7.1413 H
341 H341     9.2359    13.3899    -8.6832 H
342 H342     8.8807    13.8463   -10.4059 H
343 H343     8.8668    15.1183    -9.1070 H
344 H344     5.9644    12.4479   -10.3189 H
345 H345     7.2393    13.3716   -11.2264 H
346 H346     5.7221    14.2121   -10.6817 H
347 H347     6.0687    14.9122    -7.5820 H
348 H348     5.7259    15.4295    -9.2900 H
349 H349     7.3015    15.8796    -8.5025 H
350 H350     6.9382     7.4329    -4.3936 H
351 H351     7.4169     7.2839    -6.1656 H
352 H352     6.4164     5.1017    -5.0857 H
353 H353     3.9631     4.5377    -6.4845 H
354 H354     3.6286     4.8068    -4.7175 H
355 H355    -5.1524     8.7468    -4.9957 H
356 H356    -5.5134    12.9182    -5.4151 H
357 H357    -5.5656    11.6444    -6.7269 H
358 H358    -3.4227    13.7841    -6.2294 H
359 H359    -3.2224    12.3353    -7.3609 H
360 H360    -2.5527    14.4649    -8.2784 H
361 H361    -3.7941    15.7221    -8.7035 H
362 H362    -3.4922    14.3256    -9.8279 H
363 H363    -5.0442    11.8138    -8.7397 H
364 H364    -6.3275    13.0427    -9.1208 H
365 H365    -4.7678    13.0372   -10.0550 H
366 H366    -5.7374    14.7190    -6.4152 H
367 H367    -6.6667    14.5113    -7.9630 H
368 H368    -5.4163    15.8236    -7.8222 H
369 H369    -2.9536     7.0412    -5.3249 H
370 H370    -1.6957     7.8872    -6.3596 H
371 H371    -1.6423     5.3626    -4.7029 H
372 H372     0.9573     5.4005    -3.6514 H
373 H373    -0.1218     5.8959    -2.2766 H
@<TRIPOS>BOND
1 1 2 1
2 1 18 1
3 1 169 1
4 1 170 1
5 2 23 2
6 2 31 1
7 3 34 1
8 3 65 1
9 4 23 1
10 4 53 1
11 5 11 1
12 5 15 2
13 5 25 1
14 6 26 1
15 6 77 1
16 7 32 1
17 7 39 1
18 7 171 1
19 7 172 1
20 8 9 1
21 8 20 1
22 8 31 2
23 9 10 2
24 9 173 1
25 10 23 1
26 10 30 1
27 11 12 2
28 11 30 1
29 12 13 1
30 12 174 1
31 13 14 2
32 13 19 1
33 14 15 1
34 14 175 1
35 15 33 1
36 16 17 1
37 16 21 1
38 16 22 2
39 17 18 2
40 17 176 1
41 18 26 1
42 19 37 1
43 19 177 1
44 19 178 1
45 20 38 1
46 20 179 1
47 20 180 1
48 21 40 1
49 21 181 1
50 21 182 1
51 22 27 1
52 22 183 1
53 24 29 1
54 24 32 2
55 24 184 1
56 25 41 1
57 26 27 2
58 27 28 1
59 28 29 1
60 28 185 1
61 28 186 1
62 29 34 2
63 30 187 1
64 30 188 1
65 31 189 1
66 32 35 1
67 33 36 1
68 33 190 1
69 33 191 1
70 34 36 1
71 35 36 2
72 35 192 1
73 37 105 1
74 37 108 1
75 38 109 1
76 38 112 1
77 39 113 1
78 39 116 1
79 40 117 1
80 40 120 1
81 41 42 1
82 41 193 1
83 41 194 1
84 42 43 1
85 42 195 1
86 42 196 1
87 43 44 1
88 43 197 1
89 43 198 1
90 44 45 1
91 44 199 1
92 44 200 1
93 45 46 1
94 45 201 1
95 45 202 1
96 46 47 1
97 46 203 1
98 46 204 1
99 47 48 1
100 47 205 1
101 47 206 1
102 48 49 1
103 48 207 1
104 48 208 1
105 49 50 1
106 49 209 1
107 49 210 1
108 50 51 1
109 50 211 1
110 50 212 1
111 51 52 1
112 51 213 1
113 51 214 1
114 52 215 1
115 52 216 1
116 52 217 1
117 53 54 1
118 53 218 1
119 53 219 1
120 54 55 1
121 54 220 1
122 54 221 1
123 55 56 1
124 55 222 1
125 55 223 1
126 56 57 1
127 56 224 1
128 56 225 1
129 57 58 1
130 57 226 1
131 57 227 1
132 58 59 1
133 58 228 1
134 58 229 1
135 59 60 1
136 59 230 1
137 59 231 1
138 60 61 1
139 60 232 1
140 60 233 1
141 61 62 1
142 61 234 1
143 61 235 1
144 62 63 1
145 62 236 1
146 62 237 1
147 63 64 1
148 63 238 1
149 63 239 1
150 64 240 1
151 64 241 1
152 64 242 1
153 65 66 1
154 65 243 1
155 65 244 1
156 66 67 1
157 66 245 1
158 66 246 1
159 67 68 1
160 67 247 1
161 67 248 1
162 68 69 1
163 68 249 1
164 68 250 1
165 69 70 1
166 69 251 1
167 69 252 1
168 70 71 1
169 70 253 1
170 70 254 1
171 71 72 1
172 71 255 1
173 71 256 1
174 72 73 1
175 72 257 1
176 72 258 1
177 73 74 1
178 73 259 1
179 73 260 1
180 74 75 1
181 74 261 1
182 74 262 1
183 75 76 1
184 75 263 1
185 75 264 1
186 76 265 1
187 76 266 1
188 76 267 1
189 77 78 1
190 77 268 1
191 77 269 1
192 78 79 1
193 78 270 1
194 78 271 1
195 79 80 1
196 79 272 1
197 79 273 1
198 80 81 1
199 80 274 1
200 80 275 1
201 81 82 1
202 81 276 1
203 81 277 1
204 82 83 1
205 82 278 1
206 82 279 1
207 83 84 1
208 83 280 1
209 83 281 1
210 84 85 1
211 84 282 1
212 84 283 1
213 85 86 1
214 85 284 1
215 85 285 1
216 86 87 1
217 86 286 1
218 86 287 1
219 87 88 1
220 87 288 1
221 87 289 1
222 88 290 1
223 88 291 1
224 88 292 1
225 89 90 1
226 89 293 1
227 90 91 2
228 90 92 1
229 90 93 1
230 90 294 1
231 92 100 1
232 93 94 1
233 94 95 1
234 94 295 1
235 94 296 1
236 95 96 1
237 95 297 1
238 95 298 1
239 96 97 1
240 96 98 1
241 96 99 1
242 97 299 1
243 97 300 1
244 97 301 1
245 98 302 1
246 98 303 1
247 98 304 1
248 99 305 1
249 99 306 1
250 99 307 1
251 100 101 1
252 100 308 1
253 100 309 1
254 101 102 1
255 101 104 2
256 102 103 1
257 102 310 1
258 103 107 1
259 103 311 1
260 103 312 1
261 105 106 2
262 106 107 1
263 107 108 2
264 108 313 1
265 109 110 2
266 110 111 1
267 111 112 2
268 111 135 1
269 112 314 1
270 113 114 2
271 113 315 1
272 114 115 1
273 114 151 1
274 115 116 2
275 117 118 2
276 117 316 1
277 118 119 1
278 118 167 1
279 119 120 2
280 121 122 1
281 121 317 1
282 122 123 2
283 122 124 1
284 122 125 1
285 122 318 1
286 124 132 1
287 125 126 1
288 126 127 1
289 126 319 1
290 126 320 1
291 127 128 1
292 127 321 1
293 127 322 1
294 128 129 1
295 128 130 1
296 128 131 1
297 129 323 1
298 129 324 1
299 129 325 1
300 130 326 1
301 130 327 1
302 130 328 1
303 131 329 1
304 131 330 1
305 131 331 1
306 132 133 1
307 132 332 1
308 132 333 1
309 133 134 1
310 133 136 2
311 134 135 1
312 134 334 1
313 135 335 1
314 135 336 1
315 137 138 1
316 138 139 2
317 138 140 1
318 138 141 1
319 140 148 1
320 141 142 1
321 142 143 1
322 142 337 1
323 142 338 1
324 143 144 1
325 143 339 1
326 143 340 1
327 144 145 1
328 144 146 1
329 144 147 1
330 145 341 1
331 145 342 1
332 145 343 1
333 146 344 1
334 146 345 1
335 146 346 1
336 147 347 1
337 147 348 1
338 147 349 1
339 148 149 1
340 148 350 1
341 148 351 1
342 149 150 1
343 149 152 2
344 150 151 1
345 150 352 1
346 151 353 1
347 151 354 1
348 153 154 1
349 153 355 1
350 154 155 2
351 154 156 1
352 154 157 1
353 156 164 1
354 157 158 1
355 158 159 1
356 158 356 1
357 158 357 1
358 159 160 1
359 159 358 1
360 159 359 1
361 160 161 1
362 160 162 1
363 160 163 1
364 161 360 1
365 161 361 1
366 161 362 1
367 162 363 1
368 162 364 1
369 162 365 1
370 163 366 1
371 163 367 1
372 163 368 1
373 164 165 1
374 164 369 1
375 164 370 1
376 165 166 1
377 165 168 2
378 166 167 1
379 166 371 1
380 167 372 1
381 167 373 1
